324
 energy: -486.675695391995 gnorm: 0.000136202340 xtb: 6.7.1 (edcfbbe)
C           -3.14250797308376        9.17255558511966        1.89794945437418
C           -4.48084425564689        9.34579227892681        2.23308838053921
C           -5.25915385786535        8.26694834641806        2.60375946229503
C           -4.71437771757176        6.98926727069704        2.65354792477859
C           -3.36916870302006        6.81887349917713        2.34585895023958
C           -2.59229740056331        7.89762604322835        1.96946798241835
H           -1.54573125403525        7.75558510495523        1.73987450990340
H           -2.93059226816193        5.83289209376973        2.40278137528334
H           -4.91367124204778       10.33457961002003        2.18822262663549
H           -6.29978566238036        8.41405104325149        2.85377408720683
C           -5.54770104487221        5.82530173101930        3.07433686982326
Cl          -5.41414493331981        5.60186794902989        4.85831646289609
H           -5.20658854934990        4.89220379239903        2.62762854695375
H           -6.60534829425994        5.98258234590330        2.86710463679658
C           -1.21291250954652       11.62938485752348       -0.19054671177564
C           -0.96552568761873       12.64038600720608        0.72474053782905
C           -1.89911223458151       10.47685660214137        0.15861775716045
C           -1.37927574066401       12.48818467874982        2.04353745488351
C           -2.33883353341200       10.33798020307507        1.47707881480332
H           -0.87744920364479       11.75575983112992       -1.21144416813353
C           -2.05871412296893       11.33484234919209        2.40269213749087
H           -2.39548139405390       11.20648004318432        3.42264566437424
C           -2.29476149280140        9.47925562308233       -0.90296945138811
C           -3.76091450190379        9.69248708975954       -1.17771210735449
H           -2.12338171643464        8.45542928154428       -0.57127305396552
H           -1.70928332112204        9.65714725210291       -1.80757205937530
C           -4.71602461493547        8.72465794333318       -0.90013026288832
C           -6.05850300568245        9.02463082004789       -1.02333717625820
C           -6.48505773607341       10.30108049684731       -1.38304053942844
C           -5.53100450310022       11.26737382747379       -1.70636429761002
C           -4.18677267340487       10.93393813351166       -1.62209631884539
H           -4.41294924280462        7.74212183980454       -0.56852418268940
H           -6.79957785677734        8.27375053217797       -0.78916049544397
H           -3.45078370760857       11.68867034791116       -1.86090313510427
C           -7.93312387583773       10.58363990148462       -1.38345808374606
C           -8.79405598137782        9.83629246487508       -2.18082255171856
C          -10.15396427794539       10.07878976674989       -2.16812710739868
C          -10.68724788022412       11.07142724113377       -1.35378972473585
C           -8.47008452100431       11.56785515304321       -0.55732944405763
C           -9.83072486931781       11.80641252834253       -0.54200793575374
H           -8.38749544819335        9.06695930714134       -2.82109784232620
H          -10.81146930040035        9.49239082864128       -2.79340023333741
H           -7.81717618955493       12.13670684503867        0.08903839723467
H          -10.23521348645242       12.56829104446569        0.10863976365384
C          -12.15943753218063       11.31075591525424       -1.31616288730263
Cl         -12.91067801835512       10.24149669687471       -0.07369891340381
H          -12.64052041251716       11.06041246873497       -2.26070745890300
H          -12.40214616999035       12.33144889501064       -1.02369361870514
C           -1.11847159259296       13.57984598187764        3.04301082284220
C            0.11138040190493       14.37588290756590        2.71886780102561
H           -1.04718618649881       13.15981032948511        4.04926870829684
H           -1.96725300115258       14.27663589654312        3.04400687922698
C           -0.31433248547512       13.91934501534430        0.29477833925257
C            0.49079413819496       14.55003378208490        1.39208263577910
H           -1.10955327953258       14.61849303005860        0.00838622132091
H            0.30823752540992       13.75546600030804       -0.58786548613708
C            0.85884295156129       14.98011182319388        3.71974394103727
C            1.93958643820395       15.78358406738788        3.41292489036570
C            1.58767055202587       15.33757059381207        1.09127019668272
C            2.31244940212151       15.98698649464169        2.08687504441911
H            1.85939200158046       15.48254007406767        0.05467858556628
H            0.57948257765014       14.83160525030007        4.75367708363036
H            2.50824337999210       16.24631437413576        4.20649063888375
C            3.37774191065446       16.92809011227126        1.71452352262572
C            4.21224167228370       16.68316866018775        0.62607090855083
C            5.11329293115293       17.63791164085378        0.19824850480649
C            5.21232000111779       18.86632062748373        0.83978610188721
C            4.42038233083529       19.08972310945730        1.95960800269825
H            4.15378174213849       15.73538951693283        0.11074912979068
H            5.73993164465447       17.43353035773066       -0.65902303710899
C            3.51828868421211       18.13835327413057        2.38950877266603
H            4.48250434241653       20.03290158824209        2.48276583445207
H            2.88751286359423       18.35763995581508        3.23797785489319
C           -5.87966697183852       12.67409726065133       -2.11393105757010
C           -5.18904367546157       13.69438007344955       -1.24180748773503
H           -6.96102412595114       12.82884437563253       -2.07951652317548
H           -5.56527813785586       12.83324873546102       -3.15064209348341
C           -4.78676549166051       13.38334156086401        0.05091948084796
C           -4.09250323884477       14.29663656172086        0.81761079600025
C           -4.91389271110556       14.96839725757212       -1.72399706809545
C           -4.23401982484262       15.89181686697218       -0.95167833640314
C           -3.79847257478722       15.56790882360154        0.33087442818473
H           -4.98794914510290       12.40313669029627        0.45725913779605
H           -3.74699274023206       13.99743551817729        1.79488374763170
H           -5.22662150139042       15.23828048982107       -2.72349729016014
H           -4.03255785851753       16.87783606696398       -1.34720333778273
C           -2.98492039903065       16.51378330460303        1.11874146940541
C           -1.87628944205682       17.09652430781081        0.50747096681174
C           -1.00172800509906       17.91414718679649        1.19984048670164
C           -3.25485933331266       16.82215308010439        2.45519689714099
C           -2.36859036911501       17.63880198177796        3.14512129389501
C           -1.23399392058031       18.16156637564070        2.54950686007488
H           -1.68629786546150       16.88927324495187       -0.53747875133736
H           -2.57634078525034       17.87411666727579        4.18016419770743
C           -4.54633078226313       16.43776470730829        3.13691617074976
C           -5.45520589489235       17.63672732619895        3.05738707708542
H           -4.36037922302498       16.17609498823602        4.18019135461410
H           -5.02327800772144       15.59495572316667        2.63890236192695
C           -5.76656429801435       18.39875182593557        4.17161642539119
C           -6.53212083432518       19.54165758715594        4.03496644509807
C           -6.99968250783715       19.95346980388232        2.79234408509918
C           -6.69375466592941       19.18797187454597        1.66120644172158
C           -5.93259060849519       18.04182759896074        1.81794263613984
H           -5.40653157214207       18.10634177803438        5.14776916164677
H           -6.77325354799777       20.13577880894757        4.90521779399836
H           -5.68304656195463       17.45245563231600        0.94660491162995
C           -7.75130001057699       21.22224863241362        2.71547731583523
C           -9.06933009983440       21.27735004390759        2.27998058890762
C           -9.73872203353780       22.48548161585891        2.21544364403150
C           -9.11045581965149       23.66343098439940        2.59724460154323
C           -7.79938590692849       23.60624286746913        3.05638311525713
C           -7.13132451490215       22.40172785968732        3.11977850043899
H           -9.57532130060536       20.36681697852301        1.99375215734542
H           -6.10906884090361       22.36597278999997        3.46716382726540
H           -7.30396747427815       24.51883002371341        3.35381442668469
H          -10.76139274382384       22.51392968795416        1.86710342150086
C           -9.81447654384593       24.97760975078223        2.51187208132178
Cl          -9.05970257049470       26.00445553330364        1.23708511803916
H           -9.72777461427371       25.54491836907615        3.43886905782456
H          -10.86234905959186       24.86253140098466        2.23906847329625
C           -7.09596009420861       19.62604566045818        0.27493521904118
C           -6.73748878153519       21.06957444051398        0.04926345478209
H           -8.17046109636376       19.49019851190989        0.12925444287932
H           -6.58283876226178       18.99360217493977       -0.45553602177673
C           -5.48003521071137       21.53616505416998        0.41454921475122
C           -5.19144369167435       22.88448753839238        0.36853926323079
C           -6.14706544767707       23.79974121525940       -0.06516138086235
C           -7.66068801535769       21.97095640640281       -0.46073842426281
C           -7.36942424299020       23.31882384042616       -0.52335567206883
H           -4.73784034743974       20.83790833203484        0.77675319786053
H           -4.21811719804311       23.23638398377970        0.67934706843820
H           -8.63261779225668       21.61982609935434       -0.77844790069498
H           -8.11589576868556       24.01413543981222       -0.87722640590580
C           -5.92262778933625       25.24598394143015        0.04909558178988
C           -5.38452166099288       25.75633203848315        1.22668073174692
C           -5.27834365786463       27.11955116089579        1.43130061323378
C           -6.30936400298370       26.13448347132365       -0.94864015256039
C           -6.17178605726999       27.49687063567207       -0.76243649093490
C           -5.67773232930962       28.00158601139915        0.43064321000597
H           -5.08614797727473       25.07312772575584        2.00969773841236
H           -6.71204469421010       25.75469020330148       -1.87621210618221
H           -6.47274262931480       28.17888996032671       -1.54549332557438
C           -4.77581491579290       27.67620951909270        2.73322390981649
C           -3.98051597666770       28.93024756854441        2.51818608731266
C           -4.37820629294285       29.81193446561369        1.51665492704802
C           -5.58604828722701       29.47797324923493        0.68972669273994
H           -6.48122305259150       29.78520569373167        1.24732695080709
H           -5.57909452282883       30.03627965467958       -0.24836339732178
H           -4.18603347180856       26.93060044183562        3.27019036557268
H           -5.64440182067549       27.92331209920749        3.35883759331430
C           -2.88891530754150       29.24586956552417        3.30808676484521
C           -3.66666220067468       30.98278412180385        1.32992107424097
C           -2.59777539215177       31.32281424310003        2.15323844823135
C           -2.20093328870494       30.44328397373781        3.16222800470061
H           -2.57654872279453       28.55300313762452        4.07762084109234
H           -3.96470767418463       31.67282251168225        0.55214844606110
C           -1.93741752420514       32.62297856497094        1.91699677771468
C           -1.27647245916622       32.85649798936290        0.71454011481497
C           -0.65834743629144       34.06838141387270        0.47442383058462
C           -1.99297902600924       33.64504090125928        2.85946315434615
C           -1.37720684792657       34.85824775700571        2.61753884005235
C           -0.69901776071004       35.08216453082944        1.42496293969067
H           -1.23807358728747       32.07143905761941       -0.02721031559493
H           -0.13503076944932       34.23102144877631       -0.45679954498416
H           -2.53574197983388       33.49121739900917        3.78135474713193
H           -1.42247433884042       35.64155493809357        3.36040439973229
C            0.00731742734152       36.37395259711716        1.18435065850332
Cl           1.71134924256260       36.23918032100514        1.75835107058748
H           -0.43661742567853       37.19626721694822        1.74376906422268
H            0.06415807311083       36.62076982954893        0.12497732583844
C           -1.05352451631743       30.74009674102740        4.09435843633368
C            0.19700809191261       18.52351064328803        0.53332830099119
C           -0.24520210041326       18.98361295648018        3.32252502038252
C            0.34250218789837       20.08128822355073        2.48092322879808
H            0.56386638452434       18.31316191673411        3.64088537367870
H           -0.70490519155217       19.39465151893211        4.22385103858552
C            0.55318077301109       19.85681627704488        1.12456368119247
H            0.02983848207871       18.61383219298375       -0.54248819038441
H            1.05145348242768       17.85192819879288        0.67610060568820
C            1.12795343877138       20.85400153330469        0.35283348130775
C            0.69307191771787       21.30639461226928        3.02547348370728
C            1.27636597651033       22.30345501531051        2.25389326341364
C            1.50968089739460       22.07177545863490        0.89643131075796
H            1.29190936017478       20.67061478154653       -0.70085621189960
H            0.51852659907308       21.49586569593000        4.07628520434446
C            1.62473390728511       23.59717038673930        2.88043694731255
C            2.66916803579236       23.70029798234227        3.79128540496975
C            0.89708567257283       24.74140530367543        2.57334990891023
C            1.20519848682494       25.95586330112381        3.15767766099078
C            2.25495103595297       26.06379115115809        4.06138275155692
C            2.98169469797020       24.91816909378020        4.36737237816148
H            3.80530097333514       24.98201243007417        5.06535144143932
H            3.24828978351337       22.82145412160479        4.03651949276723
H            0.07280377798023       24.67503757353024        1.87655071529094
H            0.62270715054878       26.82908020676974        2.90249274286663
C            2.58879270625722       27.37580079635581        4.73908356926287
C            0.81163339401295       29.05252446838847        4.28908004538311
C            0.94647065913564       30.69104469097137        2.56940344703721
C            0.24822749438733       30.13511905815699        3.63415880150159
H           -1.29630556602120       30.34935774884851        5.08519087936356
H           -0.91138675616766       31.81867096518663        4.17461135260494
C            2.07695071677913       28.56539507822055        3.97614001972308
C            2.81840786599676       29.20198463139102        2.97503651658829
C            2.20606688443443       30.23086226800577        2.25490605359301
H            0.51922860644019       31.51249592615055        2.01468968328323
H            2.74420851382046       30.68782889381011        1.43702530330745
H            0.26633357705789       28.58415236896100        5.09830819745042
H            3.66944300261799       27.44670886179188        4.88128434192979
H            2.12704797949064       27.36391385498759        5.73258758973933
C            4.25432012462299       28.96748866231326        2.73780831850523
C            4.86708331949147       27.72029020678507        2.66037705309189
C            6.24304435309804       27.62030764020182        2.53088998209850
C            7.03761412692557       28.75159453672956        2.42726989563257
C            6.42457647942939       30.00203660176023        2.43149663255950
C            5.06024274951565       30.10004317797855        2.61644586490557
H            4.27141933734512       26.82080488523778        2.68874591529250
H            6.70384169835599       26.64259388299967        2.50289292254409
H            4.60936117136134       31.07991870281105        2.68258879045539
C            6.13736053667210       19.93302035372509        0.31262791554170
C            5.61092438834119       21.31007475117263        0.61564492284485
H            6.22629809606305       19.81499508259346       -0.77199566613109
H            7.13595468746678       19.79839686426911        0.73537986765900
C            6.32506930512174       22.25790866965451        1.35097748327571
C            5.75831143941448       23.51193221698398        1.56048680618869
C            4.48171879516920       23.80635786185374        1.12071605420140
C            4.34148541251640       21.63032264170915        0.15914969034576
C            3.74654857419443       22.85179090453344        0.43189694032346
H            3.78803955649046       20.88329413832362       -0.39191585891853
H            6.31865341174490       24.25011878688091        2.11620972479897
H            4.05085419797975       24.77575828754203        1.32381330434417
C            2.29746489100817       23.05791106426734        0.06928429416984
H            2.14090196105043       22.85836341836552       -0.99287194859915
H            2.00028044463312       24.08429629893265        0.28367568123833
C            7.65493487480977       21.95077272192693        1.91150111675680
C            7.82135207685388       20.89688354960197        2.80777235619671
C            9.07229940438554       20.58319567159393        3.29960637465615
C           10.19046861009835       21.30956822984663        2.90841475271056
C           10.02100769724747       22.37737028837666        2.03840787099080
C            8.76832320888446       22.69801413079599        1.54744084313203
H            6.96144952872605       20.32262484030208        3.12161623711831
H            9.18951146942260       19.75705248465820        3.98656997593769
H           10.87929496405218       22.95604339597161        1.72576398677968
H            8.65100101912796       23.52039224705097        0.85575383446523
C           11.54334261211288       20.95602640647124        3.46726057731016
C           11.63609540368320       21.49312811277824        4.87359985309879
H           12.32729408623317       21.40402897907451        2.85292718912256
H           11.66718200168665       19.87310276980645        3.46119352554540
C           11.74179297304287       22.86702349581458        5.04921762551584
C           11.76648279009970       23.43394509957724        6.30795856766128
C           11.68785969754785       22.61646668382792        7.43421782132135
C           11.56981147876233       21.25010258966156        7.26882698231526
C           11.54283920047632       20.67621253625029        5.99986577913113
C           11.41652454152670       19.20814726289749        5.90062315270407
H           11.51114902122714       20.60460892491053        8.13453682755638
H           11.80291167353265       23.50442432917039        4.17840771341141
C           12.44270963516567       18.43001859660124        5.37334052653560
C           12.31368676830385       17.05658616192555        5.29653985871153
C           11.15754184525612       16.42841101151159        5.74572162225925
C           10.13392299149061       17.20445076680488        6.27724607717048
C           10.26536708135981       18.57725267067485        6.36113557937098
H           13.35060033342573       18.90779798101902        5.03386867808928
H           13.11643664245302       16.46318726926886        4.88330239072462
H            9.22868312057470       16.72767257424803        6.62451573900471
H            9.46547992025703       19.17461318946453        6.77500214380936
C           11.00142266127730       14.94983183414179        5.62187323089136
Cl          10.25248373504578       14.55809657831787        4.02838571912011
H           10.33257155852623       14.54224098485262        6.37869901987562
H           11.95950287555975       14.43233832664371        5.64172933081461
C           11.76472436520391       23.27315647527283        8.78458118859593
C           12.82756624687158       24.33528331631987        8.75553958248803
H           11.96323518831014       22.53969456176054        9.56719825543278
H           10.79855181138002       23.74624240185565        9.00229037316212
C           12.90444315528695       25.14541984791471        7.62366814962646
C           11.90778621849847       24.91179474977090        6.52531349443382
H           12.20698302337136       25.41984336662059        5.60776003004773
H           10.93754607701126       25.31933295681909        6.83617976254229
C           13.73934004466988       24.51875912019128        9.78206694137410
C           14.71984249602605       25.48970095795310        9.68655895147928
C           14.81709305505620       26.29053796905326        8.55172801816156
C           13.89562963002139       26.10104820959572        7.52332493085176
H           13.96817774852093       26.69381172085307        6.62286176801296
H           15.40847459187730       25.63478544260957       10.50546631730404
H           13.68361745994640       23.89767631742174       10.66509251912329
C           15.86793700337743       27.30543401867475        8.40798767404147
C           17.15136700237534       27.10759211686698        8.90863204700260
C           18.12122408720042       28.07268048145664        8.72556232660246
C           15.59953356682819       28.48940761093349        7.72699698071521
C           16.57023116422581       29.45178554081531        7.50883109757257
C           17.85558576074639       29.24229359867124        8.02209031404293
H           19.11277869110491       27.91295132039928        9.12508589791223
H           17.39637622842258       26.19225863968351        9.42568987237949
H           14.59816438956572       28.66964096910490        7.36779874788898
C           18.93922217431741       30.25516452803503        7.85880612326282
Cl          18.65383028371400       31.65873631106967        8.95402061998570
H           18.98451416287739       30.66770368177383        6.85136319724091
H           19.91038165662949       29.84903656106259        8.13858777351648
C           16.24569262414371       30.70476991017930        6.73134404153623
C           14.87303542093639       30.69351296994311        6.12178378438175
H           16.98572715439502       30.82130840981180        5.93315488089298
H           16.34594303338190       31.56487927568627        7.39873933167972
C           14.63118063093140       30.01201820659970        4.93393206526836
C           13.37388240819138       30.00781659908571        4.36102265300645
C           12.31913057337035       30.69531655853291        4.95680431385522
C           12.55718974725888       31.35358916471775        6.16141026634064
C           13.81358307731585       31.34901309256618        6.73541196838549
H           15.44250733309524       29.48543049757352        4.45013428989204
C           11.00640630026139       30.79253771648857        4.30108592023007
C           10.40534972501440       29.70429950466990        3.67263191157382
C           10.35734539286469       32.02461470146581        4.27260530775095
C            9.19475812981883       29.84050780440248        3.01137586110468
C            8.56863922749896       31.08481998116043        2.97699587264275
C            9.14980958337646       32.16551384135261        3.62012232044618
H           10.88782412353503       28.73703020280612        3.70837700196136
H           10.81777147869331       32.88128364777942        4.74187438366409
H            8.65841615686582       33.12792087114163        3.59668677674666
C            7.27585178061563       31.22064286331119        2.23122333777818
H            6.74348325115330       32.12304749686820        2.53623893817755
H            7.49827463437542       31.31294736734699        1.15966930757795
C            8.53536308077429       28.68908680153254        2.29775621179632
H            8.79425204165884       28.75396013731133        1.23221855662866
H            8.91432346250236       27.73487387587139        2.66938399715309
H           13.97778177168853       31.86700885357892        7.66978538798653
H           11.74544833467209       31.86680880304449        6.65614135745854
H           13.21251700834661       29.49490213364307        3.42359169143077
