43
 energy: -52.727065035836 gnorm: 0.000304152095 xtb: 6.7.1 (edcfbbe)
C            1.14492821624930        2.28049732646452       -1.48363234589236
C            2.11804765373221        1.76862790481880       -0.73933521652459
H            0.21903600572901        1.75217125236165       -1.63414693455663
H            1.22324872755657        3.23763189620265       -1.96993184566997
C            3.41233274333033        2.37493788069977       -0.45416978866827
H            1.96853539991801        0.79782813632667       -0.28131151184413
C            3.78545029515759        3.63685229374235       -0.92202601919707
C            5.02250247664773        4.16565668413285       -0.62092896037618
C            5.93493743411927        3.45445017988691        0.15116561687392
C            4.33192041867005        1.67004189786460        0.32288085201116
C            5.57407068110988        2.19849258143775        0.61701047938060
H            4.06822257108084        0.69043328398338        0.69703762431965
H            6.26944526688200        1.62880123354812        1.21815042020750
H            5.30407499841766        5.14092652107599       -0.98853403845611
H            3.09877490196396        4.21171796748219       -1.52400554240802
C            7.27959040396049        4.05189217105989        0.46054260381690
N            7.88392681017223        4.59398485123051       -0.73544378163286
H            7.92628295014977        3.29445060968519        0.94290662632447
H            7.15341185161308        4.88237809171374        1.16503493845026
C            9.11768418699600        5.34462089710241       -0.51461688708343
C            8.20880464527901        3.60156142170305       -1.75667326276493
C            9.51293728411997        4.13230485705497       -2.39602772780947
H            7.38805315964818        3.54342944948937       -2.47656804407665
H            8.35839367076450        2.60264486627954       -1.32440013531287
N            9.72509932425336        5.45211249441009       -1.81631077692460
H            9.46599766196040        4.18366198860082       -3.48225644967044
H           10.35986645702622        3.50098813593534       -2.11289048868517
H            9.81484403164387        4.80422095600725        0.15256364574292
H            8.90107076104615        6.32400234035613       -0.08431212462505
C           12.14016389274870        6.49817032941585       -1.60921549734219
C           12.95406332660540        5.36215105612703       -2.07415056143011
H           12.03942658508508        6.69783204218024       -0.56065811066182
H           11.88219965712354        7.28223981039234       -2.29377144642198
C           14.45024014090894        5.72912342208078       -2.22208700311875
H           12.59813940665430        5.02228963248670       -3.05074879439338
H           12.87855210263902        4.53030189317093       -1.36992099903254
C           15.26960964588715        4.55040199351941       -2.72962487493293
H           14.83299334408326        6.05499592826556       -1.25289072764302
H           14.54126544001056        6.56729422744980       -2.91566184947376
H           15.19526286082845        3.70930172881439       -2.04338887873513
H           16.31828671665189        4.82538469688446       -2.82267291736609
H           14.91135157934283        4.22825886865404       -3.70518977066099
H            9.23143431225496        6.15260419985112       -2.35981949371897
