324
 energy: -486.900111442603 gnorm: 0.000262057125 xtb: 6.7.1 (edcfbbe)
C           -3.13241745653526        9.14630555421922        1.85358604703819
C           -4.46287465717756        9.32127447297809        2.22570055550064
C           -5.24352957763194        8.24119391256942        2.58116180241349
C           -4.71201727416614        6.95427101839202        2.58041630832731
C           -3.37180309333674        6.78172454970714        2.24265387044067
C           -2.59344098626631        7.86218443722909        1.88145100528324
H           -1.55223550946660        7.71713066671876        1.62906272053075
H           -2.94231298607886        5.78974374477515        2.26364199503027
H           -4.88722957959735       10.31461601165348        2.21501949409994
H           -6.27825318000392        8.39056124101718        2.85417782190623
C           -5.54880745184275        5.78728030207949        2.97244788424128
Cl          -5.36065775773730        5.45499087015648        4.74166367508251
H           -5.24289572880152        4.87079129546997        2.46937115610474
H           -6.61074924761816        5.97229374443068        2.81768348459637
C           -1.20544814208691       11.61527164168537       -0.22061694519963
C           -0.97132300698356       12.62849468770005        0.69634135830669
C           -1.88466603133002       10.45729456982935        0.12368215714586
C           -1.38985269753716       12.47178685443564        2.01289283434157
C           -2.33082756874562       10.31339466517075        1.44045696723472
H           -0.86893319412269       11.74671038155968       -1.24081551754302
C           -2.06199375459280       11.31304065792842        2.36788777978844
H           -2.40331361140695       11.18191711008681        3.38619793886121
C           -2.28037196905082        9.46730582401282       -0.94474192545997
C           -3.74906331056701        9.67873134309832       -1.20876629380533
H           -2.10461891875500        8.44042469998659       -0.62487800081203
H           -1.69872223228776        9.65606296438406       -1.85035652058196
C           -4.70373582926329        8.70701837865167       -0.93624857094935
C           -6.04553433504026        9.00787472494668       -1.04194718173121
C           -6.48432490811857       10.29074112702231       -1.38051389026067
C           -5.52583534501214       11.25755325307163       -1.70953064113824
C           -4.18286393834887       10.92453585986992       -1.63769106983790
H           -4.39724543488117        7.72064394452362       -0.61753525217383
H           -6.78202275754660        8.25357338402347       -0.80296677999529
H           -3.44925973010486       11.68154729559415       -1.87856262780629
C           -7.92501807219860       10.56943209122114       -1.35611548229460
C           -8.81631161847409        9.74300491966092       -2.04685166824279
C          -10.17171464086588        9.98340064023217       -2.01873620120685
C          -10.69085694770489       11.05599247946097       -1.29135610177781
C           -8.45032881584301       11.62788466863810       -0.60722051272981
C           -9.80717752625550       11.86295972665922       -0.57290276397508
H           -8.42644075373800        8.91678287197744       -2.62442946380981
H          -10.84643581544190        9.33940332050590       -2.56544613839616
H           -7.78471203002313       12.25006374157783       -0.02605196699514
H          -10.19642255637179       12.67999419791633        0.01844655551019
C          -12.15340573675143       11.30010452370490       -1.24354083634385
Cl         -12.91929327780854       10.30397089090655        0.07517025575640
H          -12.65790722712929       10.99314889111412       -2.15844288147127
H          -12.39530080447815       12.33295719531146       -0.99859203434941
C           -1.14017489668781       13.56628289287655        3.01249858621354
C            0.09097432561793       14.36312048372840        2.69634664035930
H           -1.07800917088888       13.14952502943013        4.02092364040399
H           -1.98946660577446       14.26230582860376        3.00244584372783
C           -0.33274910315691       13.91574557638215        0.27171109073109
C            0.47287245474003       14.54327820019951        1.37036276472527
H           -1.13572694724957       14.61074507543079       -0.00329678126438
H            0.28579777829774       13.76434377091941       -0.61619038608450
C            0.83705607191835       14.96452667059239        3.70023874025349
C            1.91706888416525       15.77020476716648        3.39820262137657
C            1.56885175808457       15.33253174753918        1.07407446124528
C            2.29257210152137       15.98088016561897        2.07289203191344
H            1.83980363934146       15.48293867763888        0.03795573285781
H            0.55620916423782       14.81210681358521        4.73346226692896
H            2.48422031136702       16.22960973883998        4.19495806780151
C            3.35492265349093       16.92547405125207        1.70711963334755
C            4.17816011862006       16.69985849437239        0.60460956711685
C            5.07769673162505       17.65921928972601        0.18546417284698
C            5.18972954054126       18.87467922275760        0.84970180956460
C            4.40973384983366       19.07914331850769        1.98209154401642
H            4.11196222390093       15.76207503926259        0.07194234893473
H            5.69462581260163       17.46881451304879       -0.68241492172576
C            3.50849959075147       18.12375650378917        2.40293770558979
H            4.48200091729383       20.01210200975590        2.52220260596384
H            2.88689352316388       18.33016030148616        3.26138355376447
C           -5.86821964174124       12.66326898264307       -2.12793476833044
C           -5.19887486040888       13.68585873962103       -1.24289453505505
H           -6.95007654897752       12.81578108032190       -2.12509002429357
H           -5.52538284134120       12.81999185882744       -3.15655981091942
C           -4.81183827937001       13.37410316158348        0.05442655367897
C           -4.12725122214130       14.28644001183775        0.83054544686295
C           -4.91863165815142       14.96176482356758       -1.71933927414305
C           -4.24598547030942       15.88314189905361       -0.93927028833104
C           -3.82326905649030       15.55809003461078        0.34801035978918
H           -5.01691516071547       12.39248211335988        0.45548603554775
H           -3.79389064924802       13.98545409449543        1.81161119942469
H           -5.22143834834991       15.23333596347712       -2.72185761339238
H           -4.04062782878192       16.87011994213398       -1.33098483643653
C           -3.01175473751178       16.50013745527592        1.14028054940619
C           -1.90517930201797       17.08998664983393        0.53060820352079
C           -1.02975053098406       17.90300938027908        1.22591494183173
C           -3.27765317924386       16.79974618632601        2.48072144057617
C           -2.38957710335171       17.61229341237178        3.17343668269076
C           -1.25770262375044       18.14098479709543        2.57854605760345
H           -1.71722155624042       16.89007017409201       -0.51627178892750
H           -2.59508617591943       17.84082570134445        4.21061971293292
C           -4.57214584868536       16.42045131826105        3.15949167933030
C           -5.46080186389568       17.63400963511756        3.08226264582958
H           -4.39020036132866       16.15158650578424        4.20185660989566
H           -5.05712441551357       15.58574187262943        2.65577774153128
C           -5.72105721223998       18.42808549134584        4.18847030511841
C           -6.45772227715060       19.58766549867316        4.04907140348894
C           -6.94932825628142       19.99331166397115        2.81020422727467
C           -6.68869944876777       19.19595728111610        1.68646435805063
C           -5.95843001933390       18.03176916704846        1.84702325914948
H           -5.34370951749487       18.14380626083516        5.16097808362777
H           -6.66222547069281       20.20225827562754        4.91480534003628
H           -5.74306645340254       17.42123866134883        0.98081162287930
C           -7.66619302299246       21.27655235688079        2.73537153855497
C           -8.96734479358112       21.38028762609847        2.24711226312803
C           -9.60623738926908       22.60176150668887        2.19580748174410
C           -8.97061957213993       23.75744040828263        2.64213521777625
C           -7.67674881934810       23.65347298120126        3.14895372331026
C           -7.03986906894591       22.43406527728466        3.20160742691888
H           -9.48354598721471       20.49057522421784        1.91684034911662
H           -6.03203788090173       22.36581227123373        3.58533796475261
H           -7.17370221414927       24.54478238319322        3.49590690515176
H          -10.61414775310537       22.66583295405430        1.80979454282935
C           -9.63900325321529       25.08384843863085        2.56170783716621
Cl          -9.03071972973562       26.00955293593480        1.12529960479300
H           -9.41305117921012       25.71187785821618        3.42285135765988
H          -10.71574286062589       24.99669356213430        2.42616355733470
C           -7.09193245732144       19.62471796081570        0.29690487188683
C           -6.71514470358482       21.06019586935057        0.05156680737275
H           -8.16816270857764       19.49979278245977        0.15291195309074
H           -6.58850417634959       18.97706967251642       -0.42752029866422
C           -5.46020634036341       21.52196385840568        0.43163896469069
C           -5.15795841461597       22.86621435011000        0.36735173411639
C           -6.09527237755220       23.78224937940050       -0.10421019068077
C           -7.61783723724360       21.96044124210135       -0.49683845211198
C           -7.31160571794192       23.30388925952191       -0.58031949077190
H           -4.73254121200528       20.82387967743231        0.82236802192645
H           -4.18855299692077       23.21530943459710        0.69348760606973
H           -8.58707581319663       21.61273205935655       -0.82696141739265
H           -8.04386060380823       23.99992990402130       -0.96221669685681
C           -5.86067499956950       25.22775840102693       -0.00728867933072
C           -5.35529040853273       25.75110679477992        1.17914299724150
C           -5.24309811598879       27.11602933630628        1.36771810771705
C           -6.20655291515848       26.10503727219566       -1.02973362853219
C           -6.06070501685979       27.46856091712923       -0.85914963714538
C           -5.60043227211426       27.98708351477006        0.34172725449550
H           -5.09030338719758       25.07591572003960        1.98072186586068
H           -6.58454173094846       25.71490958145205       -1.96372143306590
H           -6.32919917576734       28.14195930226279       -1.66177322448173
C           -4.78085385438417       27.68608310581136        2.67858506598074
C           -3.97307492550396       28.93438167672397        2.47702296418572
C           -4.32792686120223       29.80637348785755        1.45041022932455
C           -5.50509885523808       29.46652680341532        0.58149274036299
H           -6.41941374177321       29.79005090322289        1.09784769860608
H           -5.45638582510509       30.00957843939800       -0.36467892665008
H           -4.21237069060329       26.94375861968891        3.24274534682332
H           -5.66931454574994       27.94205250206640        3.27259588675609
C           -2.90852165954147       29.25670878482791        3.30177959619423
C           -3.60979792257425       30.97439869676754        1.28126742138536
C           -2.57264708135876       31.32880990982184        2.14313170765785
C           -2.21300169384187       30.45018665734802        3.17088450927509
H           -2.62298196303469       28.56771132767425        4.08557063005150
H           -3.88037381708152       31.65804477829809        0.48757657795915
C           -1.91646385148967       32.62816962541294        1.92248325176307
C           -1.31144830022088       32.90308541388741        0.69403207193959
C           -0.70146641168064       34.11643845867189        0.46133904659042
C           -1.92188996095314       33.62870529580580        2.89728446453799
C           -1.31652088808505       34.84449431380832        2.66279057760025
C           -0.69348138445116       35.10835480635568        1.44311438787807
H           -1.30804940840739       32.13938370412381       -0.07106675271487
H           -0.22137337040804       34.30624384973530       -0.48840494290351
H           -2.43068864902337       33.45460501678388        3.83515478881921
H           -1.32756012861003       35.60808917505028        3.42804156011509
C           -0.00535879564923       36.40250261375591        1.20723410160436
Cl           1.73392608637375       36.29038132879494        1.72899281919513
H           -0.43016097774251       37.21379647771208        1.79630075230878
H            0.02811834107901       36.67023940531492        0.15232203909769
C           -1.07933705304149       30.73079375219281        4.12524847179124
C            0.16798264109815       18.51709333265912        0.56153316775309
C           -0.26642407980774       18.95968059833336        3.35286931860257
C            0.31407893873187       20.06511995449857        2.51660792868877
H            0.54699680249782       18.28939416641784        3.66079776939476
H           -0.72219951845665       19.36238140603495        4.26006173556953
C            0.52221257623927       19.84789385102602        1.15850869281946
H            0.00061289273607       18.61187315892649       -0.51398886392342
H            1.02357672371447       17.84633547910399        0.70157600055666
C            1.09294885736850       20.85018842129775        0.39069394795116
C            0.66179632965929       21.28904182619013        3.06600124550942
C            1.24094477507009       22.29143925506619        2.29807095279137
C            1.47291929794687       22.06607852305164        0.93938145830547
H            1.25555262724261       20.67219491512876       -0.66428345816211
H            0.48847214252498       21.47320176723947        4.11806192666334
C            1.58865705435893       23.58483512391367        2.92622860842630
C            2.64153836892740       23.69113969291904        3.82691067017330
C            0.85553443166311       24.72750060220201        2.62586244485723
C            1.16752865740709       25.94349187357534        3.20505241486713
C            2.22685426604264       26.05482781031681        4.09711207245565
C            2.95770019403150       24.91048584164838        4.39815437772673
H            3.78864138064801       24.97654561771547        5.08731784990947
H            3.22508795243979       22.81384644519584        4.06720969918764
H            0.02449182399362       24.65887702695886        1.93731660891240
H            0.58115156900110       26.81544179559642        2.95432621915026
C            2.56699832838275       27.36919117945425        4.76761013741818
C            0.78869232853469       29.04499629577423        4.31986520528841
C            0.91748799088913       30.68222420908842        2.59808682182355
C            0.22263205980638       30.12683703755972        3.66572721011963
H           -1.33473545865092       30.32537225428083        5.10716320291939
H           -0.93049850347667       31.80640440718235        4.22378163372031
C            2.05311147371015       28.55771611764134        4.00378471238366
C            2.79175342096453       29.19408320317597        3.00016144169683
C            2.17626807480336       30.22248195240698        2.28103301239751
H            0.48644300643115       31.50150995321624        2.04306756884290
H            2.71174409275983       30.67861197983022        1.46079014415371
H            0.24529653931316       28.57655772503649        5.13056095327832
H            3.64858772227735       27.43834010457347        4.90371174550020
H            2.11071809440634       27.36196440084227        5.76386566304687
C            4.22598989465319       28.95876171889923        2.75605856655477
C            4.83723586628782       27.71055010577454        2.67832822629006
C            6.21174890419819       27.60839521855480        2.53743461227512
C            7.00677285296925       28.73826165243634        2.42200218103887
C            6.39525518118721       29.98953108763519        2.42804324937449
C            5.03278518376551       30.08996401709102        2.62451716916410
H            4.24084890060223       26.81188123644291        2.71504477681174
H            6.67144430887438       26.63019781131709        2.50949409450632
H            4.58360312452577       31.07068486346648        2.69125543562045
C            6.11389450875506       19.94809036898199        0.33509521031957
C            5.58105815487389       21.32146597898516        0.64476632584251
H            6.20949377345598       19.83839045241160       -0.75008787909369
H            7.11082677336501       19.81527459448395        0.76249432534728
C            6.29698998994573       22.27379905138485        1.37296892305624
C            5.72430606771877       23.52443263747316        1.58727329639322
C            4.44339205893745       23.81270174131418        1.15640895104095
C            4.30633647804061       21.63506728296119        0.19832238909731
C            3.70805431610614       22.85460697838714        0.47270851135533
H            3.75189980191384       20.88452924690797       -0.34709347876377
H            6.28488728039268       24.26531984979411        2.13914592282900
H            4.00919753764524       24.78014217021007        1.36204024710283
C            2.25719078749030       23.05722701610951        0.11501038682602
H            2.09859079348586       22.86128805030852       -0.94772643289405
H            1.95765628940698       24.08215746982214        0.33365418838403
C            7.63624170061591       21.97902511027860        1.91743210658453
C            7.82687526296232       20.92637196400930        2.81070718213930
C            9.08780215202894       20.62632137030184        3.28483589755300
C           10.19308376843991       21.36509886140697        2.87898321166424
C            9.99905766220355       22.43299279496104        2.01413359115203
C            8.73625245928117       22.74007732159405        1.54089747489010
H            6.97742939056602       20.34319141463499        3.13667554702086
H            9.22422546462689       19.80251651270389        3.97111137817491
H           10.84625800148431       23.02355219636487        1.69291937022586
H            8.59989171641538       23.56329681011309        0.85332833147967
C           11.55621308036266       21.02302882986264        3.41822990547410
C           11.64610529062178       21.53239879036476        4.83593362744790
H           12.32823702297818       21.49631998822991        2.80731455670535
H           11.69516380741483       19.94260864079637        3.38762524306652
C           11.71804164208945       22.90463976285814        5.03507135483942
C           11.71407269077180       23.45393725334735        6.30235034568655
C           11.63334409343705       22.61551167372389        7.41452246297882
C           11.55431456698641       21.25058757950216        7.22595255169781
C           11.56430949654486       20.69091300206532        5.94772440253079
C           11.49620352146584       19.22487085217864        5.83124406688596
H           11.50304064547012       20.59058874932368        8.08155394436963
H           11.77301175044782       23.55743819052910        4.17477680164842
C           12.51622163587058       18.49672236165663        5.21577742158236
C           12.44950973359320       17.12223076563755        5.13434565795789
C           11.36257126901113       16.42908365059202        5.66561852279925
C           10.34384256674263       17.15415209113286        6.28187719510761
C           10.41561438063962       18.52827183518997        6.37254682645496
H           13.37572965258678       19.01986278158548        4.82085120831186
H           13.24723897989409       16.57087767077837        4.65674208667300
H            9.49175208439938       16.63019525594764        6.69145815300220
H            9.62045639136343       19.08179638391110        6.85186243696432
C           11.27718432411823       14.94990301790058        5.54442809819869
Cl          10.52541019958049       14.49737150132418        3.95533518453829
H           10.63721873332161       14.50807709223686        6.30661379081569
H           12.25796005255537       14.47648790479120        5.54615600253237
C           11.67284091731711       23.25499105954703        8.77490152040000
C           12.72580522686504       24.32753290118546        8.77832385826588
H           11.86362318400634       22.51349973730865        9.55244155145723
H           10.69541092496753       23.71302346752013        8.97727454021437
C           12.81074683900825       25.15843193319359        7.65998787725378
C           11.82771132605726       24.92956843775179        6.54671598598389
H           12.12825608330271       25.45854870057146        5.64114864934780
H           10.84787695063498       25.31695544403298        6.85452787657196
C           13.62976332308635       24.50330439665943        9.81520784846212
C           14.60059029031420       25.48267624482756        9.74592927665211
C           14.71027554295943       26.31053783231851        8.62403370274593
C           13.79351753619538       26.12094814946756        7.58316598979509
H           13.86817455207344       26.72056056328370        6.68757312527019
H           15.27442952460075       25.61854066752552       10.57886104469297
H           13.57044813049395       23.86761295824510       10.68860760348622
C           15.74986184980988       27.32666398407905        8.50983551492364
C           16.99682878944431       27.18874657381335        9.12977438132035
C           17.96864765045767       28.14837388834521        8.96447958431572
C           15.53507914826851       28.47395492211257        7.73651162480331
C           16.50829269898205       29.43097317671429        7.54155264735778
C           17.75930445717999       29.27082563058068        8.16106939571505
H           18.92707400493242       28.02676792512936        9.45126896040900
H           17.21079896377150       26.31262315969209        9.72336890213151
H           14.56446771597330       28.62522584810024        7.29099041963704
C           18.84259428177626       30.27294659412699        8.01362118359575
Cl          18.52938105294049       31.73093400461542        9.06368654419381
H           18.92899229615684       30.67177845355040        7.00423625745577
H           19.80268798117564       29.88432620520612        8.34950148150826
C           16.24241607656817       30.63836729379946        6.67020977899382
C           14.87229034968026       30.64615628740503        6.05816440437916
H           16.98970607790012       30.65832800749063        5.86937459723203
H           16.37960055583044       31.54051354647903        7.27283768336085
C           14.61418547160335       29.95587395087770        4.87857903338212
C           13.35458803200217       29.96355342250956        4.31136605075719
C           12.31148736658293       30.67274057270066        4.90350980528132
C           12.56641485454689       31.34272088286629        6.09927268636910
C           13.82465739837136       31.32574054871023        6.66731140196660
H           15.41472875062051       29.40952924850442        4.39844573536904
C           10.99592206486915       30.77493792700503        4.25704408082639
C           10.38630060239499       29.68702177431891        3.63433080829695
C           10.34729164785802       32.00812902276136        4.23164963179278
C            9.17108776035593       29.82465547358126        2.98291517881779
C            8.54616658865573       31.06992835559502        2.95153989158437
C            9.13488944469680       32.15029059342464        3.58906871837838
H           10.86598940736774       28.71845395511119        3.66904060032533
H           10.81250820932997       32.86488128147762        4.69648015151786
H            8.64441720531443       33.11359034283813        3.56885007653631
C            7.24725929618003       31.20599817620644        2.21608682143382
H            6.71904186524335       32.11056969531973        2.52237474960026
H            7.46026036590748       31.29392584283431        1.14198828782105
C            8.50305205201112       28.67282996792393        2.27797999162172
H            8.75193921877823       28.73442570273868        1.20966838565196
H            8.88387171789315       27.71898245958490        2.64853613411312
H           14.00135908288599       31.84939543878314        7.59638811752509
H           11.76403136035777       31.87167640265797        6.59315557370150
H           13.18141075090427       29.44063844670061        3.38135074735955
